#P opt=(tight,verytight) external="./nn_energy_and_force.py" nosymmetry

Title

0 1
C        1.45170000       0.24189936      -0.07047174
H        0.38625828      -0.00330903      -0.01539496
O        1.78174405       0.57052776      -1.33539671
O        2.21624027       0.22158598       0.85932846
H        2.72943480       0.77753325      -1.32955281


